! Generated by BlenderFDS 4.2.0 on Blender 2.79 (sub 0)
! Case: SimpleCandle (from Blender Scene)
! Description: SimpleCandle
! Date: Tue, 24 Jul 2018, 23:09:11
! File:

&HEAD CHID='SimpleCandle02'
      TITLE='SimpleCandle02' /

 MESH ID='Domain' IJK=150,150,200 XB=-0.015,0.015,-0.015,0.015,-0.01,0.03 /

&MESH ID='Domain' IJK=75,75,50 XB=-0.015,0.000,-0.015,0.000,-0.01,0.00 /
&MESH ID='Domain' IJK=75,75,50 XB=-0.015,0.000, 0.000,0.015,-0.01,0.00 /
&MESH ID='Domain' IJK=75,75,50 XB= 0.000,0.015,-0.015,0.000,-0.01,0.00 /
&MESH ID='Domain' IJK=75,75,50 XB= 0.000,0.015, 0.000,0.015,-0.01,0.00 /

&MESH ID='Domain' IJK=75,75,50 XB=-0.015,0.000,-0.015,0.000, 0.00,0.01 /
&MESH ID='Domain' IJK=75,75,50 XB=-0.015,0.000, 0.000,0.015, 0.00,0.01 /
&MESH ID='Domain' IJK=75,75,50 XB= 0.000,0.015,-0.015,0.000, 0.00,0.01 /
&MESH ID='Domain' IJK=75,75,50 XB= 0.000,0.015, 0.000,0.015, 0.00,0.01 /

&MESH ID='Domain' IJK=75,75,50 XB=-0.015,0.000,-0.015,0.000, 0.01,0.02 /
&MESH ID='Domain' IJK=75,75,50 XB=-0.015,0.000, 0.000,0.015, 0.01,0.02 /
&MESH ID='Domain' IJK=75,75,50 XB= 0.000,0.015,-0.015,0.000, 0.01,0.02 /
&MESH ID='Domain' IJK=75,75,50 XB= 0.000,0.015, 0.000,0.015, 0.01,0.02 /

&MESH ID='Domain' IJK=75,75,50 XB=-0.015,0.000,-0.015,0.000, 0.02,0.03 /
&MESH ID='Domain' IJK=75,75,50 XB=-0.015,0.000, 0.000,0.015, 0.02,0.03 /
&MESH ID='Domain' IJK=75,75,50 XB= 0.000,0.015,-0.015,0.000, 0.02,0.03 /
&MESH ID='Domain' IJK=75,75,50 XB= 0.000,0.015, 0.000,0.015, 0.02,0.03 /



&TIME T_END=0. /

&VENT MB='XMIN',SURF_ID='OPEN'/
&VENT MB='XMAX',SURF_ID='OPEN'/
&VENT MB='YMIN',SURF_ID='OPEN'/
&VENT MB='YMAX',SURF_ID='OPEN'/
&VENT MB='ZMIN',SURF_ID='OPEN'/
&VENT MB='ZMAX',SURF_ID='OPEN'/

&SURF ID='BURNER', COLOR='BLACK', HRRPUA= 66.67 /
&SURF ID='WICK', COLOR='ANTIQUE WHITE' /
&SURF ID='WAX', COLOR='TOMATO' /

&SPEC ID='ETHYLENE', BACKGROUND=.FALSE. /
&REAC FUEL='ETHYLENE'/


! --- Geometric entities (from Blender Objects)
! Scaled geometry
&OBST ID='Wax_0' XB=0.0037400000000000003,0.00426,-0.009260000000000001,-0.00899,-0.05351,-0.00474, SURF_ID='WAX', FYI='CandleWax' /
&OBST ID='Wax_1' XB=-0.00376,-0.00124,0.00849,0.00876,-0.05376,-0.00449, SURF_ID='WAX', FYI='CandleWax' /
&OBST ID='Wax_2' XB=0.00099,0.00726,-0.00126,-0.00099,-0.05376,-0.00749, SURF_ID='WAX', FYI='CandleWax' /
&OBST ID='Wax_3' XB=-0.00451,0.00451,0.0057399999999999994,0.00601,-0.05376,-0.00749, SURF_ID='WAX', FYI='CandleWax' /
&OBST ID='Wax_4' XB=-0.00726,-0.00624,-0.00626,-0.00599,-0.05376,-0.00449, SURF_ID='WAX', FYI='CandleWax' /
&OBST ID='Wax_5' XB=-0.0047599999999999995,-0.0037400000000000003,0.00849,0.00876,-0.05351,-0.00449, SURF_ID='WAX', FYI='CandleWax' /
&OBST ID='Wax_6' XB=-0.0057599999999999995,-0.005490000000000001,-0.00851,-0.008239999999999999,-0.053259999999999995,-0.00474, SURF_ID='WAX', FYI='CandleWax' /
&OBST ID='Wax_7' XB=-0.00501,0.00501,-0.0057599999999999995,-0.005490000000000001,-0.05376,-0.00749, SURF_ID='WAX', FYI='CandleWax' /
&OBST ID='Wax_8' XB=0.00124,0.00751,0.00074,0.00101,-0.05376,-0.00749, SURF_ID='WAX', FYI='CandleWax' /
&OBST ID='Wax_9' XB=0.00349,0.00376,-0.00776,-0.00749,-0.05376,-0.0049900000000000005, SURF_ID='WAX', FYI='CandleWax' /
&OBST ID='Wax_10' XB=0.0027400000000000002,0.0032600000000000003,0.00724,0.00751,-0.05376,-0.00699, SURF_ID='WAX', FYI='CandleWax' /
&OBST ID='Wax_11' XB=-0.00701,-0.00649,0.00349,0.00376,-0.05376,-0.00724, SURF_ID='WAX', FYI='CandleWax' /
&OBST ID='Wax_12' XB=-0.00626,0.00626,-0.00426,-0.0037400000000000003,-0.05376,-0.00749, SURF_ID='WAX', FYI='CandleWax' /
&OBST ID='Wax_13' XB=0.0049900000000000005,0.00626,0.00699,0.00726,-0.05376,-0.00449, SURF_ID='WAX', FYI='CandleWax' /
&OBST ID='Wax_14' XB=0.00249,0.00426,-0.00851,-0.008239999999999999,-0.05376,-0.00449, SURF_ID='WAX', FYI='CandleWax' /
&OBST ID='Wax_15' XB=0.00049,0.0017599999999999998,0.00774,0.00801,-0.05376,-0.00699, SURF_ID='WAX', FYI='CandleWax' /
&OBST ID='Wax_16' XB=-0.00551,0.00551,-0.00526,-0.0049900000000000005,-0.05376,-0.00749, SURF_ID='WAX', FYI='CandleWax' /
&OBST ID='Wax_17' XB=-0.00526,-0.00449,0.0057399999999999994,0.00601,-0.05376,-0.00724, SURF_ID='WAX', FYI='CandleWax' /
&OBST ID='Wax_18' XB=-0.00651,-0.00624,0.0049900000000000005,0.00526,-0.05376,-0.00674, SURF_ID='WAX', FYI='CandleWax' /
&OBST ID='Wax_19' XB=-0.00751,-0.00724,0.0037400000000000003,0.0040100000000000005,-0.05376,-0.005240000000000001, SURF_ID='WAX', FYI='CandleWax' /
&OBST ID='Wax_20' XB=0.0057399999999999994,0.00601,0.008239999999999999,0.00851,-0.05226,-0.005240000000000001, SURF_ID='WAX', FYI='CandleWax' /
&OBST ID='Wax_21' XB=-0.00201,0.00201,0.00749,0.00776,-0.05376,-0.00724, SURF_ID='WAX', FYI='CandleWax' /
&OBST ID='Wax_22' XB=0.0049900000000000005,0.00526,0.00599,0.00626,-0.05376,-0.00699, SURF_ID='WAX', FYI='CandleWax' /
&OBST ID='Wax_23' XB=0.008239999999999999,0.00851,-0.0057599999999999995,-0.005490000000000001,-0.053259999999999995,-0.00474, SURF_ID='WAX', FYI='CandleWax' /
&OBST ID='Wax_24' XB=0.0037400000000000003,0.00426,0.00674,0.00701,-0.05376,-0.00699, SURF_ID='WAX', FYI='CandleWax' /
&OBST ID='Wax_25' XB=-0.0032600000000000003,0.0032600000000000003,0.00874,0.00901,-0.05376,-0.00449, SURF_ID='WAX', FYI='CandleWax' /
&OBST ID='Wax_26' XB=-0.00726,-0.00699,-0.00451,-0.00424,-0.05376,-0.0049900000000000005, SURF_ID='WAX', FYI='CandleWax' /
&OBST ID='Wax_27' XB=-0.00776,-0.00749,-0.0035099999999999997,-0.0032400000000000003,-0.05376,-0.005240000000000001, SURF_ID='WAX', FYI='CandleWax' /
&OBST ID='Wax_28' XB=-0.00501,0.00501,0.005490000000000001,0.0057599999999999995,-0.05376,-0.00749, SURF_ID='WAX', FYI='CandleWax' /
&OBST ID='Wax_29' XB=0.00624,0.00651,-0.00801,-0.00774,-0.053259999999999995,-0.0049900000000000005, SURF_ID='WAX', FYI='CandleWax' /
&OBST ID='Wax_30' XB=-0.00426,-0.0032400000000000003,0.00874,0.00901,-0.05351,-0.00449, SURF_ID='WAX', FYI='CandleWax' /
&OBST ID='Wax_31' XB=-0.00126,0.00126,-0.00826,-0.00799,-0.05376,-0.00674, SURF_ID='WAX', FYI='CandleWax' /
&OBST ID='Wax_32' XB=-0.00101,0.00101,-0.00751,-0.00724,-0.05376,-0.00749, SURF_ID='WAX', FYI='CandleWax' /
&OBST ID='Wax_33' XB=-0.00651,0.00651,0.00349,0.00376,-0.05376,-0.00749, SURF_ID='WAX', FYI='CandleWax' /
&OBST ID='Wax_34' XB=-0.00726,0.00726,-0.0022600000000000003,-0.00149,-0.05376,-0.00749, SURF_ID='WAX', FYI='CandleWax' /
&OBST ID='Wax_35' XB=-0.00601,0.00601,-0.00451,-0.00424,-0.05376,-0.00749, SURF_ID='WAX', FYI='CandleWax' /
&OBST ID='Wax_36' XB=0.0032400000000000003,0.00426,-0.00901,-0.00874,-0.05351,-0.00449, SURF_ID='WAX', FYI='CandleWax' /
&OBST ID='Wax_37' XB=0.00199,0.00301,0.00949,0.00976,-0.05351,-0.00474, SURF_ID='WAX', FYI='CandleWax' /
&OBST ID='Wax_38' XB=-0.00726,-0.00074,0.00124,0.00151,-0.05376,-0.00749, SURF_ID='WAX', FYI='CandleWax' /
&OBST ID='Wax_39' XB=-0.00301,0.00301,0.00674,0.00701,-0.05376,-0.00749, SURF_ID='WAX', FYI='CandleWax' /
&OBST ID='Wax_40' XB=-0.0027600000000000003,-0.00199,-0.00776,-0.00749,-0.05376,-0.00699, SURF_ID='WAX', FYI='CandleWax' /
&OBST ID='Wax_41' XB=-0.00301,0.00301,-0.00701,-0.00674,-0.05376,-0.00749, SURF_ID='WAX', FYI='CandleWax' /
&OBST ID='Wax_42' XB=-0.00676,0.00676,0.00299,0.0035099999999999997,-0.05376,-0.00749, SURF_ID='WAX', FYI='CandleWax' /
&OBST ID='Wax_43' XB=-0.00551,-0.00474,0.00799,0.00826,-0.05351,-0.00449, SURF_ID='WAX', FYI='CandleWax' /
&OBST ID='Wax_44' XB=0.0049900000000000005,0.00626,-0.00726,-0.00699,-0.05376,-0.00449, SURF_ID='WAX', FYI='CandleWax' /
&OBST ID='Wax_45' XB=-0.00651,-0.005240000000000001,0.00674,0.00701,-0.05376,-0.00449, SURF_ID='WAX', FYI='CandleWax' /
&OBST ID='Wax_46' XB=-0.0035099999999999997,0.0035099999999999997,-0.00676,-0.00649,-0.05376,-0.00749, SURF_ID='WAX', FYI='CandleWax' /
&OBST ID='Wax_47' XB=0.00699,0.00726,0.0037400000000000003,0.0040100000000000005,-0.05376,-0.00674, SURF_ID='WAX', FYI='CandleWax' /
&OBST ID='Wax_48' XB=-0.00751,-0.00724,0.00649,0.00676,-0.05351,-0.00474, SURF_ID='WAX', FYI='CandleWax' /
&OBST ID='Wax_49' XB=0.00099,0.00726,0.00099,0.00126,-0.05376,-0.00749, SURF_ID='WAX', FYI='CandleWax' /
&OBST ID='Wax_50' XB=-0.00626,0.00626,0.0037400000000000003,0.00426,-0.05376,-0.00749, SURF_ID='WAX', FYI='CandleWax' /
&OBST ID='Wax_51' XB=-0.00526,-0.0037400000000000003,-0.00801,-0.00774,-0.05376,-0.00449, SURF_ID='WAX', FYI='CandleWax' /
&OBST ID='Wax_52' XB=-0.00201,0.00201,0.00974,0.01001,-0.05351,-0.00474, SURF_ID='WAX', FYI='CandleWax' /
&OBST ID='Wax_53' XB=0.00924,0.00951,0.0039900000000000005,0.00426,-0.05126000000000001,-0.005490000000000001, SURF_ID='WAX', FYI='CandleWax' /
&OBST ID='Wax_54' XB=-0.00751,-0.00699,-0.00651,-0.00624,-0.05351,-0.00449, SURF_ID='WAX', FYI='CandleWax' /
&OBST ID='Wax_55' XB=-0.00376,-0.00299,0.00774,0.00801,-0.05376,-0.00474, SURF_ID='WAX', FYI='CandleWax' /
&OBST ID='Wax_56' XB=0.00999,0.01026,-0.00126,-0.00099,-0.05301,-0.0049900000000000005, SURF_ID='WAX', FYI='CandleWax' /
&OBST ID='Wax_57' XB=-0.00426,-0.0039900000000000005,0.00699,0.00726,-0.05376,-0.00649, SURF_ID='WAX', FYI='CandleWax' /
&OBST ID='Wax_58' XB=0.00299,0.00376,0.00674,0.00701,-0.05376,-0.00724, SURF_ID='WAX', FYI='CandleWax' /
&OBST ID='Wax_59' XB=-0.009260000000000001,-0.00899,0.00424,0.00451,-0.053259999999999995,-0.0049900000000000005, SURF_ID='WAX', FYI='CandleWax' /
&OBST ID='Wax_60' XB=-0.0022600000000000003,0.0022600000000000003,-0.00726,-0.00699,-0.05376,-0.00749, SURF_ID='WAX', FYI='CandleWax' /
&OBST ID='Wax_61' XB=0.00799,0.00826,0.00174,0.00201,-0.05376,-0.005240000000000001, SURF_ID='WAX', FYI='CandleWax' /
&OBST ID='Wax_62' XB=0.00724,0.00751,0.0032400000000000003,0.0035099999999999997,-0.05376,-0.00674, SURF_ID='WAX', FYI='CandleWax' /
&OBST ID='Wax_63' XB=-0.00701,0.00701,-0.00301,-0.0022400000000000002,-0.05376,-0.00749, SURF_ID='WAX', FYI='CandleWax' /
&OBST ID='Wax_64' XB=-0.00651,-0.00599,-0.00751,-0.00724,-0.05351,-0.00449, SURF_ID='WAX', FYI='CandleWax' /
&OBST ID='Wax_65' XB=-0.00076,0.00076,0.00024,0.0005099999999999999,-0.05376,-0.00674, SURF_ID='WAX', FYI='CandleWax' /
&OBST ID='Wax_66' XB=-0.00676,0.00676,-0.0035099999999999997,-0.00299,-0.05376,-0.00749, SURF_ID='WAX', FYI='CandleWax' /
&OBST ID='Wax_67' XB=0.00074,0.00726,-0.00151,-0.00124,-0.05376,-0.00749, SURF_ID='WAX', FYI='CandleWax' /
&OBST ID='Wax_68' XB=0.0027400000000000002,0.00301,0.00774,0.00801,-0.05376,-0.0049900000000000005, SURF_ID='WAX', FYI='CandleWax' /
&OBST ID='Wax_69' XB=-0.00251,0.00251,0.00899,0.009260000000000001,-0.05376,-0.00449, SURF_ID='WAX', FYI='CandleWax' /
&OBST ID='Wax_70' XB=-0.0057599999999999995,0.0057599999999999995,-0.00501,-0.00449,-0.05376,-0.00749, SURF_ID='WAX', FYI='CandleWax' /
&OBST ID='Wax_71' XB=-0.00076,0.00076,0.00124,0.00151,-0.05376,-0.00724, SURF_ID='WAX', FYI='CandleWax' /
&OBST ID='Wax_72' XB=0.00124,0.00376,-0.00876,-0.00849,-0.05376,-0.00449, SURF_ID='WAX', FYI='CandleWax' /
&OBST ID='Wax_73' XB=-0.00201,0.00201,-0.00776,-0.00749,-0.05376,-0.00724, SURF_ID='WAX', FYI='CandleWax' /
&OBST ID='Wax_74' XB=0.0037400000000000003,0.00526,-0.00801,-0.00774,-0.05376,-0.00449, SURF_ID='WAX', FYI='CandleWax' /
&OBST ID='Wax_75' XB=0.00674,0.00701,-0.00726,-0.00699,-0.05351,-0.00474, SURF_ID='WAX', FYI='CandleWax' /
&OBST ID='Wax_76' XB=-0.00201,0.00201,-0.01001,-0.00974,-0.05351,-0.00474, SURF_ID='WAX', FYI='CandleWax' /
&OBST ID='Wax_77' XB=-0.00726,-0.00099,-0.00126,-0.00099,-0.05376,-0.00749, SURF_ID='WAX', FYI='CandleWax' /
&OBST ID='Wax_78' XB=-0.0047599999999999995,-0.00424,-0.00676,-0.00649,-0.05376,-0.00699, SURF_ID='WAX', FYI='CandleWax' /
&OBST ID='Wax_79' XB=-0.0035099999999999997,0.0035099999999999997,0.00649,0.00676,-0.05376,-0.00749, SURF_ID='WAX', FYI='CandleWax' /
&OBST ID='Wax_80' XB=-0.0040100000000000005,-0.0037400000000000003,-0.00751,-0.00724,-0.05376,-0.005240000000000001, SURF_ID='WAX', FYI='CandleWax' /
&OBST ID='Wax_81' XB=-0.00151,-0.00124,-0.00026,0.00026,-0.05376,-0.00724, SURF_ID='WAX', FYI='CandleWax' /
&OBST ID='Wax_82' XB=-0.00526,0.00526,0.005240000000000001,0.00551,-0.05376,-0.00749, SURF_ID='WAX', FYI='CandleWax' /
&OBST ID='Wax_83' XB=-0.00251,0.00251,-0.009260000000000001,-0.00899,-0.05376,-0.00449, SURF_ID='WAX', FYI='CandleWax' /
&OBST ID='Wax_84' XB=0.00724,0.00776,-0.00626,-0.00599,-0.05351,-0.00449, SURF_ID='WAX', FYI='CandleWax' /
&OBST ID='Wax_85' XB=-0.00851,-0.008239999999999999,0.005240000000000001,0.00551,-0.05351,-0.00474, SURF_ID='WAX', FYI='CandleWax' /
&OBST ID='Wax_86' XB=-0.00426,-0.00249,0.008239999999999999,0.00851,-0.05376,-0.00449, SURF_ID='WAX', FYI='CandleWax' /
&OBST ID='Wax_87' XB=-0.00626,-0.0049900000000000005,-0.00726,-0.00699,-0.05376,-0.00449, SURF_ID='WAX', FYI='CandleWax' /
&OBST ID='Wax_88' XB=-0.00601,-0.005240000000000001,-0.00801,-0.00774,-0.05351,-0.00449, SURF_ID='WAX', FYI='CandleWax' /
&OBST ID='Wax_89' XB=-0.00651,0.00651,-0.00376,-0.00349,-0.05376,-0.00749, SURF_ID='WAX', FYI='CandleWax' /
&OBST ID='Wax_90' XB=0.00299,0.00376,-0.00701,-0.00674,-0.05376,-0.00724, SURF_ID='WAX', FYI='CandleWax' /
&OBST ID='Wax_91' XB=0.00424,0.00551,0.00749,0.00776,-0.05376,-0.00449, SURF_ID='WAX', FYI='CandleWax' /
&OBST ID='Wax_92' XB=-0.00076,0.00076,-0.00076,-0.00049,-0.05376,-0.00699, SURF_ID='WAX', FYI='CandleWax' /
&OBST ID='Wax_93' XB=-0.00126,-0.00049,-0.00101,-0.00074,-0.05376,-0.00724, SURF_ID='WAX', FYI='CandleWax' /
&OBST ID='Wax_94' XB=0.00699,0.00801,0.0049900000000000005,0.00526,-0.05376,-0.00449, SURF_ID='WAX', FYI='CandleWax' /
&OBST ID='Wax_95' XB=0.00724,0.00751,-0.0022600000000000003,-0.00199,-0.05376,-0.00724, SURF_ID='WAX', FYI='CandleWax' /
&OBST ID='Wax_96' XB=0.00649,0.00751,0.0057399999999999994,0.00601,-0.05376,-0.00449, SURF_ID='WAX', FYI='CandleWax' /
&OBST ID='Wax_97' XB=0.00299,0.00376,-0.00801,-0.00774,-0.05376,-0.00474, SURF_ID='WAX', FYI='CandleWax' /
&OBST ID='Wax_98' XB=0.00074,0.00726,0.00124,0.00151,-0.05376,-0.00749, SURF_ID='WAX', FYI='CandleWax' /
&OBST ID='Wax_99' XB=-0.00726,-0.00099,0.00099,0.00126,-0.05376,-0.00749, SURF_ID='WAX', FYI='CandleWax' /
&OBST ID='Wax_100' XB=-0.00601,0.00601,0.00424,0.00451,-0.05376,-0.00749, SURF_ID='WAX', FYI='CandleWax' /
&OBST ID='Wax_101' XB=-0.00376,0.00376,0.00624,0.00651,-0.05376,-0.00749, SURF_ID='WAX', FYI='CandleWax' /
&OBST ID='Wax_102' XB=0.00749,0.00776,0.0027400000000000002,0.00301,-0.05376,-0.00674, SURF_ID='WAX', FYI='CandleWax' /
&OBST ID='Wax_103' XB=-0.0027600000000000003,-0.00199,0.00749,0.00776,-0.05376,-0.00699, SURF_ID='WAX', FYI='CandleWax' /
&OBST ID='Wax_104' XB=-0.00376,0.00376,-0.00651,-0.00624,-0.05376,-0.00749, SURF_ID='WAX', FYI='CandleWax' /
&OBST ID='Wax_105' XB=-0.00776,-0.00749,0.0032400000000000003,0.0035099999999999997,-0.05376,-0.005240000000000001, SURF_ID='WAX', FYI='CandleWax' /
&OBST ID='Wax_106' XB=-0.00426,0.00426,-0.00626,-0.00599,-0.05376,-0.00749, SURF_ID='WAX', FYI='CandleWax' /
&OBST ID='Wax_107' XB=-0.0032600000000000003,0.0032600000000000003,-0.00901,-0.00874,-0.05376,-0.00449, SURF_ID='WAX', FYI='CandleWax' /
&OBST ID='Wax_108' XB=0.00474,0.00551,0.00799,0.00826,-0.05351,-0.00449, SURF_ID='WAX', FYI='CandleWax' /
&OBST ID='Wax_109' XB=0.00699,0.00726,0.0027400000000000002,0.00301,-0.05376,-0.00724, SURF_ID='WAX', FYI='CandleWax' /
&OBST ID='Wax_110' XB=0.00674,0.00776,-0.00551,-0.005240000000000001,-0.05376,-0.00449, SURF_ID='WAX', FYI='CandleWax' /
&OBST ID='Wax_111' XB=0.00249,0.00426,0.008239999999999999,0.00851,-0.05376,-0.00449, SURF_ID='WAX', FYI='CandleWax' /
&OBST ID='Wax_112' XB=-0.00301,-0.00124,0.00924,0.00951,-0.05351,-0.00449, SURF_ID='WAX', FYI='CandleWax' /
&OBST ID='Wax_113' XB=0.00424,0.0047599999999999995,-0.00676,-0.00649,-0.05376,-0.00699, SURF_ID='WAX', FYI='CandleWax' /
&OBST ID='Wax_114' XB=-0.00626,-0.0057399999999999994,-0.00501,-0.00474,-0.05376,-0.00724, SURF_ID='WAX', FYI='CandleWax' /
&OBST ID='Wax_115' XB=-0.00726,0.00726,0.00149,0.0022600000000000003,-0.05376,-0.00749, SURF_ID='WAX', FYI='CandleWax' /
&OBST ID='Wax_116' XB=-0.00251,-0.00099,-0.00851,-0.008239999999999999,-0.05376,-0.00474, SURF_ID='WAX', FYI='CandleWax' /
&OBST ID='Wax_117' XB=0.00049,0.0017599999999999998,-0.00801,-0.00774,-0.05376,-0.00699, SURF_ID='WAX', FYI='CandleWax' /
&OBST ID='Wax_118' XB=0.00699,0.00801,-0.00526,-0.0049900000000000005,-0.05376,-0.00449, SURF_ID='WAX', FYI='CandleWax' /
&OBST ID='Wax_119' XB=-0.00776,-0.00674,-0.00551,-0.005240000000000001,-0.05376,-0.00449, SURF_ID='WAX', FYI='CandleWax' /
&OBST ID='Wax_120' XB=-0.00726,-0.00699,0.0027400000000000002,0.00301,-0.05376,-0.00724, SURF_ID='WAX', FYI='CandleWax' /
&OBST ID='Wax_121' XB=0.00099,0.0027600000000000003,0.00724,0.00751,-0.05376,-0.00724, SURF_ID='WAX', FYI='CandleWax' /
&OBST ID='Wax_122' XB=-0.00126,0.00126,0.00849,0.00876,-0.05376,-0.00474, SURF_ID='WAX', FYI='CandleWax' /
&OBST ID='Wax_123' XB=-0.00526,0.00526,-0.00551,-0.005240000000000001,-0.05376,-0.00749, SURF_ID='WAX', FYI='CandleWax' /
&OBST ID='Wax_124' XB=-0.00701,0.00701,0.0022400000000000002,0.00301,-0.05376,-0.00749, SURF_ID='WAX', FYI='CandleWax' /
&OBST ID='Wax_125' XB=0.00999,0.01026,0.00149,0.0017599999999999998,-0.050010000000000006,-0.00674, SURF_ID='WAX', FYI='CandleWax' /
&OBST ID='Wax_126' XB=-0.00551,0.00551,0.0049900000000000005,0.00526,-0.05376,-0.00749, SURF_ID='WAX', FYI='CandleWax' /
&OBST ID='Wax_127' XB=-0.00126,0.00126,-0.00951,-0.00924,-0.05376,-0.00449, SURF_ID='WAX', FYI='CandleWax' /
&OBST ID='Wax_128' XB=-0.00701,-0.00599,0.00624,0.00651,-0.05376,-0.00449, SURF_ID='WAX', FYI='CandleWax' /
&OBST ID='Wax_129' XB=-0.00751,-0.00149,-0.00076,0.00076,-0.05376,-0.00749, SURF_ID='WAX', FYI='CandleWax' /
&OBST ID='Wax_130' XB=0.00424,0.00526,0.008239999999999999,0.00851,-0.05351,-0.00449, SURF_ID='WAX', FYI='CandleWax' /
&OBST ID='Wax_131' XB=0.0037400000000000003,0.00426,0.00749,0.00776,-0.05376,-0.00474, SURF_ID='WAX', FYI='CandleWax' /
&OBST ID='Wax_132' XB=-0.0032600000000000003,-0.0022400000000000002,0.00799,0.00826,-0.05376,-0.00474, SURF_ID='WAX', FYI='CandleWax' /
&OBST ID='Wax_133' XB=-0.00701,-0.00674,-0.00501,-0.00474,-0.05376,-0.0049900000000000005, SURF_ID='WAX', FYI='CandleWax' /
&OBST ID='Wax_134' XB=-0.0057599999999999995,0.0057599999999999995,0.00449,0.00501,-0.05376,-0.00749, SURF_ID='WAX', FYI='CandleWax' /
&OBST ID='Wax_135' XB=-0.0047599999999999995,-0.0032400000000000003,0.00799,0.00826,-0.05376,-0.00449, SURF_ID='WAX', FYI='CandleWax' /
&OBST ID='Wax_136' XB=-0.0032600000000000003,-0.0027400000000000002,-0.00751,-0.00724,-0.05376,-0.00699, SURF_ID='WAX', FYI='CandleWax' /
&OBST ID='Wax_137' XB=0.00449,0.00501,-0.00726,-0.00699,-0.05376,-0.00474, SURF_ID='WAX', FYI='CandleWax' /
&OBST ID='Wax_138' XB=0.00424,0.00526,-0.00851,-0.008239999999999999,-0.05351,-0.00449, SURF_ID='WAX', FYI='CandleWax' /
&OBST ID='Wax_139' XB=-0.00101,0.00101,0.00999,0.01026,-0.053259999999999995,-0.0049900000000000005, SURF_ID='WAX', FYI='CandleWax' /
&OBST ID='Wax_140' XB=0.00649,0.00676,-0.00526,-0.0049900000000000005,-0.05376,-0.0049900000000000005, SURF_ID='WAX', FYI='CandleWax' /
&OBST ID='Wax_141' XB=-0.00451,0.00451,-0.00601,-0.0057399999999999994,-0.05376,-0.00749, SURF_ID='WAX', FYI='CandleWax' /
&OBST ID='Wax_142' XB=0.00674,0.00701,0.00449,0.0047599999999999995,-0.05376,-0.00599, SURF_ID='WAX', FYI='CandleWax' /
&OBST ID='Wax_143' XB=-0.00376,-0.00299,0.00674,0.00701,-0.05376,-0.00724, SURF_ID='WAX', FYI='CandleWax' /
&OBST ID='Wax_144' XB=0.00449,0.0047599999999999995,0.00899,0.009260000000000001,-0.05226,-0.005240000000000001, SURF_ID='WAX', FYI='CandleWax' /
&OBST ID='Wax_145' XB=-0.00376,-0.00299,-0.00801,-0.00774,-0.05376,-0.00474, SURF_ID='WAX', FYI='CandleWax' /
&OBST ID='Wax_146' XB=-0.00251,-0.00199,0.00974,0.01001,-0.053259999999999995,-0.0049900000000000005, SURF_ID='WAX', FYI='CandleWax' /
&OBST ID='Wax_147' XB=-0.00751,-0.00699,-0.0047599999999999995,-0.00449,-0.05376,-0.00474, SURF_ID='WAX', FYI='CandleWax' /
&OBST ID='Wax_148' XB=-0.00701,-0.00674,-0.00726,-0.00699,-0.05351,-0.00474, SURF_ID='WAX', FYI='CandleWax' /
&OBST ID='Wax_149' XB=-0.00801,-0.00774,-0.00301,-0.0027400000000000002,-0.05376,-0.0049900000000000005, SURF_ID='WAX', FYI='CandleWax' /
&OBST ID='Wax_150' XB=-0.00551,-0.00424,0.00749,0.00776,-0.05376,-0.00449, SURF_ID='WAX', FYI='CandleWax' /
&OBST ID='Wax_151' XB=-0.00376,-0.00249,-0.009260000000000001,-0.00899,-0.05351,-0.00449, SURF_ID='WAX', FYI='CandleWax' /
&OBST ID='Wax_152' XB=-0.00726,-0.00074,-0.00151,-0.00124,-0.05376,-0.00749, SURF_ID='WAX', FYI='CandleWax' /
&OBST ID='Wax_153' XB=-0.00101,0.00101,-0.00026,0.00026,-0.05376,-0.00674, SURF_ID='WAX', FYI='CandleWax' /
&OBST ID='Wax_154' XB=-0.00601,-0.005490000000000001,-0.00826,-0.00799,-0.05351,-0.00474, SURF_ID='WAX', FYI='CandleWax' /
&OBST ID='Wax_155' XB=-0.00751,-0.00124,0.00074,0.00101,-0.05376,-0.00749, SURF_ID='WAX', FYI='CandleWax' /
&OBST ID='Wax_156' XB=0.00599,0.00651,-0.00451,-0.00424,-0.05376,-0.00724, SURF_ID='WAX', FYI='CandleWax' /
&OBST ID='Wax_157' XB=0.005490000000000001,0.0057599999999999995,-0.00601,-0.0057399999999999994,-0.05376,-0.00674, SURF_ID='WAX', FYI='CandleWax' /
&OBST ID='Wax_158' XB=0.00299,0.00376,-0.00951,-0.00924,-0.05351,-0.00474, SURF_ID='WAX', FYI='CandleWax' /
&OBST ID='Wax_159' XB=-0.0005099999999999999,0.0005099999999999999,0.00774,0.00801,-0.05376,-0.00724, SURF_ID='WAX', FYI='CandleWax' /
&OBST ID='Wax_160' XB=-0.00201,0.00201,0.00949,0.00976,-0.05351,-0.00449, SURF_ID='WAX', FYI='CandleWax' /
&OBST ID='Wax_161' XB=0.00724,0.00776,0.00599,0.00626,-0.05351,-0.00449, SURF_ID='WAX', FYI='CandleWax' /
&OBST ID='Wax_162' XB=0.00649,0.00701,0.00674,0.00701,-0.05351,-0.00449, SURF_ID='WAX', FYI='CandleWax' /
&OBST ID='Wax_163' XB=0.00074,0.00151,0.00049,0.00076,-0.05376,-0.00724, SURF_ID='WAX', FYI='CandleWax' /
&OBST ID='Wax_164' XB=-0.00701,-0.00674,-0.00751,-0.00724,-0.053259999999999995,-0.00474, SURF_ID='WAX', FYI='CandleWax' /
&OBST ID='Wax_165' XB=-0.00801,-0.00774,0.0027400000000000002,0.00301,-0.05376,-0.0049900000000000005, SURF_ID='WAX', FYI='CandleWax' /
&OBST ID='Wax_166' XB=-0.00126,0.00126,0.00799,0.00826,-0.05376,-0.00674, SURF_ID='WAX', FYI='CandleWax' /
&OBST ID='Wax_167' XB=-0.0057599999999999995,-0.005240000000000001,0.005240000000000001,0.00551,-0.05376,-0.00724, SURF_ID='WAX', FYI='CandleWax' /
&OBST ID='Wax_168' XB=0.00474,0.00501,-0.00676,-0.00649,-0.05376,-0.00649, SURF_ID='WAX', FYI='CandleWax' /
&OBST ID='Wax_169' XB=-0.00076,0.00076,-0.0005099999999999999,-0.00024,-0.05376,-0.00674, SURF_ID='WAX', FYI='CandleWax' /
&OBST ID='Wax_170' XB=0.0032400000000000003,0.0047599999999999995,0.00799,0.00826,-0.05376,-0.00449, SURF_ID='WAX', FYI='CandleWax' /
&OBST ID='Wax_171' XB=-0.00601,-0.005490000000000001,-0.00651,-0.00624,-0.05376,-0.00474, SURF_ID='WAX', FYI='CandleWax' /
&OBST ID='Wax_172' XB=-0.00101,0.00101,-0.00851,-0.008239999999999999,-0.05376,-0.0049900000000000005, SURF_ID='WAX', FYI='CandleWax' /
&OBST ID='Wax_173' XB=0.0032400000000000003,0.0047599999999999995,-0.00826,-0.00799,-0.05376,-0.00449, SURF_ID='WAX', FYI='CandleWax' /
&OBST ID='Wax_174' XB=-0.00076,0.00076,-0.00151,-0.00124,-0.05376,-0.00724, SURF_ID='WAX', FYI='CandleWax' /
&OBST ID='Wax_175' XB=-0.00626,-0.0057399999999999994,0.00474,0.00501,-0.05376,-0.00724, SURF_ID='WAX', FYI='CandleWax' /
&OBST ID='Wax_176' XB=-0.00151,-0.00074,-0.00076,-0.00049,-0.05376,-0.00724, SURF_ID='WAX', FYI='CandleWax' /
&OBST ID='Wax_177' XB=0.00749,0.00776,0.0037400000000000003,0.0040100000000000005,-0.05376,-0.00474, SURF_ID='WAX', FYI='CandleWax' /
&OBST ID='Wax_178' XB=0.00124,0.00751,-0.00101,-0.00074,-0.05376,-0.00749, SURF_ID='WAX', FYI='CandleWax' /
&OBST ID='Wax_179' XB=0.00624,0.00651,0.00749,0.00776,-0.05351,-0.00474, SURF_ID='WAX', FYI='CandleWax' /
&OBST ID='Wax_180' XB=-0.00751,-0.00724,-0.00701,-0.00674,-0.053259999999999995,-0.00474, SURF_ID='WAX', FYI='CandleWax' /
&OBST ID='Wax_181' XB=0.00674,0.00751,-0.0057599999999999995,-0.005490000000000001,-0.05376,-0.00449, SURF_ID='WAX', FYI='CandleWax' /
&OBST ID='Wax_182' XB=-0.00526,-0.0049900000000000005,-0.00901,-0.00874,-0.05051,-0.005490000000000001, SURF_ID='WAX', FYI='CandleWax' /
&OBST ID='Wax_183' XB=0.00724,0.00751,-0.0035099999999999997,-0.0032400000000000003,-0.05376,-0.00674, SURF_ID='WAX', FYI='CandleWax' /
&OBST ID='Wax_184' XB=0.00699,0.00726,0.00349,0.00376,-0.05376,-0.00699, SURF_ID='WAX', FYI='CandleWax' /
&OBST ID='Wax_185' XB=-0.00101,0.00101,-0.01026,-0.00999,-0.053259999999999995,-0.0049900000000000005, SURF_ID='WAX', FYI='CandleWax' /
&OBST ID='Wax_186' XB=0.00649,0.00701,-0.00376,-0.00349,-0.05376,-0.00724, SURF_ID='WAX', FYI='CandleWax' /
&OBST ID='Wax_187' XB=-0.00126,0.00126,0.00924,0.00951,-0.05376,-0.00449, SURF_ID='WAX', FYI='CandleWax' /
&OBST ID='Wax_188' XB=0.0049900000000000005,0.00526,-0.00626,-0.00599,-0.05376,-0.00699, SURF_ID='WAX', FYI='CandleWax' /
&OBST ID='Wax_189' XB=0.00899,0.009260000000000001,-0.00451,-0.00424,-0.053259999999999995,-0.0049900000000000005, SURF_ID='WAX', FYI='CandleWax' /
&OBST ID='Wax_190' XB=-0.00651,-0.0057399999999999994,-0.0047599999999999995,-0.00449,-0.05376,-0.00724, SURF_ID='WAX', FYI='CandleWax' /
&OBST ID='Wax_191' XB=0.00774,0.00826,0.00299,0.0032600000000000003,-0.05376,-0.00474, SURF_ID='WAX', FYI='CandleWax' /
&OBST ID='Wax_192' XB=0.00424,0.00501,-0.00626,-0.00599,-0.05376,-0.00724, SURF_ID='WAX', FYI='CandleWax' /
&OBST ID='Wax_193' XB=-0.00301,-0.00199,-0.00976,-0.00949,-0.05351,-0.00474, SURF_ID='WAX', FYI='CandleWax' /
&OBST ID='Wax_194' XB=-0.00676,-0.0057399999999999994,0.00649,0.00676,-0.05376,-0.00449, SURF_ID='WAX', FYI='CandleWax' /
&OBST ID='Wax_195' XB=0.00624,0.00651,0.00474,0.00501,-0.05376,-0.00699, SURF_ID='WAX', FYI='CandleWax' /
&OBST ID='Wax_196' XB=-0.00801,-0.00699,-0.00526,-0.0049900000000000005,-0.05376,-0.00449, SURF_ID='WAX', FYI='CandleWax' /
&OBST ID='Wax_197' XB=0.005240000000000001,0.0057599999999999995,0.00649,0.00676,-0.05376,-0.00474, SURF_ID='WAX', FYI='CandleWax' /
&OBST ID='Wax_198' XB=0.00474,0.00601,0.00724,0.00751,-0.05376,-0.00449, SURF_ID='WAX', FYI='CandleWax' /
&OBST ID='Wax_199' XB=-0.00626,-0.0049900000000000005,0.00699,0.00726,-0.05376,-0.00449, SURF_ID='WAX', FYI='CandleWax' /
&OBST ID='Wax_200' XB=-0.00526,-0.0049900000000000005,-0.00676,-0.00649,-0.05376,-0.0049900000000000005, SURF_ID='WAX', FYI='CandleWax' /
&OBST ID='Wax_201' XB=0.00099,0.00126,-0.01026,-0.00999,-0.05301,-0.0049900000000000005, SURF_ID='WAX', FYI='CandleWax' /
&OBST ID='Wax_202' XB=-0.0022600000000000003,0.0022600000000000003,0.00699,0.00726,-0.05376,-0.00749, SURF_ID='WAX', FYI='CandleWax' /
&OBST ID='Wax_203' XB=-0.00801,-0.00774,0.00624,0.00651,-0.053259999999999995,-0.0049900000000000005, SURF_ID='WAX', FYI='CandleWax' /
&OBST ID='Wax_204' XB=0.00424,0.00451,0.00899,0.009260000000000001,-0.053259999999999995,-0.0049900000000000005, SURF_ID='WAX', FYI='CandleWax' /
&OBST ID='Wax_205' XB=0.005240000000000001,0.0057599999999999995,-0.00676,-0.00649,-0.05376,-0.00474, SURF_ID='WAX', FYI='CandleWax' /
&OBST ID='Wax_206' XB=0.00949,0.00976,-0.0035099999999999997,-0.0032400000000000003,-0.05276,-0.0049900000000000005, SURF_ID='WAX', FYI='CandleWax' /
&OBST ID='Wax_207' XB=-0.00201,0.00201,-0.00976,-0.00949,-0.05351,-0.00449, SURF_ID='WAX', FYI='CandleWax' /
&OBST ID='Wax_208' XB=-0.0032600000000000003,-0.0022400000000000002,-0.00826,-0.00799,-0.05376,-0.00474, SURF_ID='WAX', FYI='CandleWax' /
&OBST ID='Wax_209' XB=0.00099,0.00151,-0.0005099999999999999,-0.00024,-0.05376,-0.00724, SURF_ID='WAX', FYI='CandleWax' /
&OBST ID='Wax_210' XB=0.00599,0.00651,-0.00601,-0.0057399999999999994,-0.05376,-0.00474, SURF_ID='WAX', FYI='CandleWax' /
&OBST ID='Wax_211' XB=0.00924,0.00951,0.0037400000000000003,0.0040100000000000005,-0.053259999999999995,-0.0049900000000000005, SURF_ID='WAX', FYI='CandleWax' /
&OBST ID='Wax_212' XB=0.0037400000000000003,0.0047599999999999995,-0.00876,-0.00849,-0.05351,-0.00449, SURF_ID='WAX', FYI='CandleWax' /
&OBST ID='Wax_213' XB=0.00674,0.00701,-0.00451,-0.00424,-0.05376,-0.00674, SURF_ID='WAX', FYI='CandleWax' /
&OBST ID='Wax_214' XB=-0.00551,-0.00424,-0.00776,-0.00749,-0.05376,-0.00449, SURF_ID='WAX', FYI='CandleWax' /
&OBST ID='Wax_215' XB=-0.00776,-0.00674,0.005240000000000001,0.00551,-0.05376,-0.00449, SURF_ID='WAX', FYI='CandleWax' /
&OBST ID='Wax_216' XB=-0.00426,-0.00349,0.00649,0.00676,-0.05376,-0.00724, SURF_ID='WAX', FYI='CandleWax' /
&OBST ID='Wax_217' XB=0.00249,0.0027600000000000003,-0.01001,-0.00974,-0.05251,-0.005240000000000001, SURF_ID='WAX', FYI='CandleWax' /
&OBST ID='Wax_218' XB=0.00099,0.00251,0.008239999999999999,0.00851,-0.05376,-0.00474, SURF_ID='WAX', FYI='CandleWax' /
&OBST ID='Wax_219' XB=-0.00301,-0.00199,0.00949,0.00976,-0.05351,-0.00474, SURF_ID='WAX', FYI='CandleWax' /
&OBST ID='Wax_220' XB=-0.0057599999999999995,-0.005490000000000001,0.0057399999999999994,0.00601,-0.05376,-0.00674, SURF_ID='WAX', FYI='CandleWax' /
&OBST ID='Wax_221' XB=0.00049,0.00126,-0.00101,-0.00074,-0.05376,-0.00724, SURF_ID='WAX', FYI='CandleWax' /
&OBST ID='Wax_222' XB=-0.00426,-0.00249,-0.00851,-0.008239999999999999,-0.05376,-0.00449, SURF_ID='WAX', FYI='CandleWax' /
&OBST ID='Wax_223' XB=-0.0005099999999999999,0.0005099999999999999,0.00074,0.00101,-0.05376,-0.00699, SURF_ID='WAX', FYI='CandleWax' /
&OBST ID='Wax_224' XB=-0.01026,-0.00999,-0.00151,-0.00124,-0.05251,-0.005240000000000001, SURF_ID='WAX', FYI='CandleWax' /
&OBST ID='Wax_225' XB=-0.00101,0.00101,-0.00126,-0.00099,-0.05376,-0.00724, SURF_ID='WAX', FYI='CandleWax' /
&OBST ID='Wax_226' XB=-0.00526,-0.0049900000000000005,-0.00626,-0.00599,-0.05376,-0.00699, SURF_ID='WAX', FYI='CandleWax' /
&OBST ID='Wax_227' XB=-0.00501,-0.00449,0.00699,0.00726,-0.05376,-0.00474, SURF_ID='WAX', FYI='CandleWax' /
&OBST ID='Wax_228' XB=-0.0047599999999999995,-0.00424,-0.00901,-0.00874,-0.05351,-0.00474, SURF_ID='WAX', FYI='CandleWax' /